Circuit: * C:\Users\Robin\Documents\Openspacher\OtempSensor.asc

Ignoring empty pin current: Ix(u1:1)
Ignoring empty pin current: Ix(u1:2)
Direct Newton iteration for .op point succeeded.

Date: Tue Feb 27 12:14:12 2024
Total elapsed time: 0.128 seconds.

tnom = 27
temp = 27
method = trap
totiter = 3
traniter = 0
tranpoints = 0
accept = 0
rejected = 0
matrix size = 6
fillins = 1
solver = Normal
Avg thread counts: 8.0/0.0/8.0/8.0
Matrix Compiler1: 254 bytes object code size
Matrix Compiler2: 422 bytes object code size
